Version 4
SHEET 1 1120 840
WIRE -16 96 -48 96
WIRE 176 128 128 128
WIRE -16 160 -48 160
WIRE 176 224 176 128
WIRE 240 224 176 224
WIRE 240 288 176 288
WIRE -16 320 -48 320
WIRE 176 352 176 288
WIRE 176 352 128 352
WIRE -272 384 -288 384
WIRE -16 384 -112 384
WIRE 400 432 400 256
WIRE 480 432 400 432
WIRE 704 464 640 464
WIRE 480 496 400 496
WIRE -16 560 -48 560
WIRE 704 576 704 464
WIRE 800 576 704 576
WIRE 400 592 400 496
WIRE 400 592 128 592
WIRE 1008 608 960 608
WIRE -272 624 -288 624
WIRE -16 624 -112 624
WIRE 800 640 736 640
WIRE 576 704 560 704
WIRE 736 704 736 640
FLAG 64 48 vdd
IOPIN 64 48 In
FLAG -48 96 a
IOPIN -48 96 In
FLAG -48 160 b
IOPIN -48 160 In
FLAG 64 208 vss
IOPIN 64 208 In
FLAG 64 272 vdd
IOPIN 64 272 In
FLAG -48 320 a
IOPIN -48 320 In
FLAG 64 432 vss
IOPIN 64 432 In
FLAG -288 384 b
IOPIN -288 384 In
FLAG -192 320 vdd
IOPIN -192 320 In
FLAG -192 448 vss
IOPIN -192 448 In
FLAG 64 512 vdd
IOPIN 64 512 In
FLAG -48 560 c
IOPIN -48 560 In
FLAG 64 672 vss
IOPIN 64 672 In
FLAG -288 624 b
IOPIN -288 624 In
FLAG -192 560 vdd
IOPIN -192 560 In
FLAG -192 688 vss
IOPIN -192 688 In
FLAG 320 176 vdd
IOPIN 320 176 In
FLAG 560 384 vdd
IOPIN 560 384 In
FLAG 880 528 vdd
IOPIN 880 528 In
FLAG 320 336 vss
IOPIN 320 336 In
FLAG 560 544 vss
IOPIN 560 544 In
FLAG 880 688 vss
IOPIN 880 688 In
FLAG 560 704 c
IOPIN 560 704 In
FLAG 656 640 vdd
IOPIN 656 640 In
FLAG 656 768 vss
IOPIN 656 768 In
FLAG 1008 608 y
IOPIN 1008 608 Out
SYMBOL and 64 128 R0
SYMATTR InstName X1
SYMBOL and 64 352 R0
SYMATTR InstName X2
SYMBOL not -192 384 R0
SYMATTR InstName X3
SYMBOL and 64 592 R0
SYMATTR InstName X4
SYMBOL not -192 624 R0
SYMATTR InstName X5
SYMBOL or 320 256 R0
SYMATTR InstName X6
SYMBOL or 560 464 R0
SYMATTR InstName X7
SYMBOL or 880 608 R0
SYMATTR InstName X8
SYMBOL not 656 704 R0
SYMATTR InstName X9
