Version 4
SHEET 1 2116 680
WIRE 1408 0 1408 -32
WIRE 1072 32 928 32
WIRE 1360 32 1072 32
WIRE 1408 96 1408 48
WIRE 1472 144 1408 144
WIRE 1328 176 928 176
WIRE 1360 176 1328 176
WIRE 1408 240 1408 192
WIRE 1408 240 1216 240
WIRE 1568 240 1408 240
WIRE 1216 304 1216 240
WIRE 1408 304 1408 240
WIRE 1216 320 1216 304
WIRE 1072 384 1072 32
WIRE 1168 384 1072 384
WIRE 1216 384 1216 352
WIRE 1328 384 1328 176
WIRE 1360 384 1328 384
WIRE 1408 384 1408 352
WIRE 1216 464 1216 400
WIRE 1408 464 1408 400
WIRE 1408 464 1216 464
WIRE 1408 512 1408 464
FLAG 928 32 a
IOPIN 928 32 In
FLAG 1408 -48 vdd
IOPIN 1408 -48 In
FLAG 1568 240 y
IOPIN 1568 240 Out
FLAG 1408 512 vss
IOPIN 1408 512 In
FLAG 928 176 b
IOPIN 928 176 In
FLAG 1472 144 vdd
IOPIN 1472 144 In
SYMBOL nmos4 1360 304 R0
SYMATTR InstName M4
SYMATTR Value2 l=1u w=1u
SYMBOL pmos4 1360 -48 R0
SYMATTR InstName M5
SYMATTR Value2 l=1u w=1u
SYMBOL pmos4 1360 96 R0
SYMATTR InstName M6
SYMATTR Value2 l=1u w=1u
SYMBOL nmos4 1168 304 R0
SYMATTR InstName M7
SYMATTR Value2 l=1u w=1u
TEXT 1552 80 Left 2 !.model PMOS PMOS(Level=1 Vto=-1V Kp=100u)
TEXT 1552 112 Left 2 !.model NMOS NMOS(Level=1 Vto=1V Kp=100u)
