Version 4
SHEET 1 880 680
WIRE 0 32 -512 32
WIRE 0 128 0 32
WIRE -512 144 -512 32
WIRE -80 192 -224 192
WIRE 160 192 80 192
WIRE -224 208 -224 192
WIRE 160 208 160 192
WIRE -512 304 -512 224
WIRE -224 304 -224 288
WIRE -224 304 -512 304
WIRE 0 304 0 256
WIRE 0 304 -224 304
WIRE 160 304 160 272
WIRE 160 304 0 304
WIRE 0 320 0 304
FLAG 0 320 0
SYMBOL not 0 192 R0
SYMATTR InstName X5
SYMBOL voltage -512 128 R0
WINDOW 123 0 0 Left 0
WINDOW 39 0 0 Left 0
SYMATTR InstName V1
SYMATTR Value 1.8
SYMBOL voltage -224 192 R0
WINDOW 123 0 0 Left 0
WINDOW 39 0 0 Left 0
SYMATTR InstName V2
SYMATTR Value 0
SYMBOL cap 144 208 R0
SYMATTR InstName C1
SYMATTR Value 1f
TEXT -544 344 Left 2 !.tran 1m
