Version 4
SHEET 1 968 680
WIRE 192 -112 -688 -112
WIRE 192 -16 192 -112
WIRE 64 64 -528 64
WIRE 64 128 -368 128
WIRE 432 128 320 128
WIRE -688 144 -688 -112
WIRE -528 176 -528 64
WIRE -368 176 -368 128
WIRE 64 192 -224 192
WIRE -224 208 -224 192
WIRE 432 208 432 128
WIRE -688 304 -688 224
WIRE -528 304 -528 256
WIRE -528 304 -688 304
WIRE -368 304 -368 256
WIRE -368 304 -528 304
WIRE -224 304 -224 288
WIRE -224 304 -368 304
WIRE 0 304 -224 304
WIRE 192 304 192 272
WIRE 192 304 0 304
WIRE 432 304 432 272
WIRE 432 304 192 304
WIRE 0 320 0 304
FLAG 0 320 0
DATAFLAG 432 160 ""
DATAFLAG 0 -112 ""
DATAFLAG 0 -112 ""
DATAFLAG -112 192 ""
DATAFLAG -160 128 ""
DATAFLAG -176 64 ""
SYMBOL voltage -688 128 R0
WINDOW 123 0 0 Left 0
WINDOW 39 0 0 Left 0
SYMATTR InstName V1
SYMATTR Value 5
SYMBOL voltage -224 192 R0
WINDOW 123 0 0 Left 0
WINDOW 39 0 0 Left 0
SYMATTR InstName V2
SYMATTR Value 5
SYMBOL cap 416 208 R0
SYMATTR InstName C1
SYMATTR Value 1f
SYMBOL voltage -368 160 R0
WINDOW 123 0 0 Left 0
WINDOW 39 0 0 Left 0
SYMATTR InstName V3
SYMATTR Value 5
SYMBOL voltage -528 160 R0
WINDOW 123 0 0 Left 0
WINDOW 39 0 0 Left 0
SYMATTR InstName V4
SYMATTR Value 5
SYMBOL fun_g 192 224 R0
SYMATTR InstName X1
TEXT -544 344 Left 2 !.tran 1m
