Version 4
SHEET 1 880 680
WIRE 0 32 -512 32
WIRE 0 80 0 32
WIRE -80 128 -368 128
WIRE -512 144 -512 32
WIRE 160 160 80 160
WIRE -368 176 -368 128
WIRE -80 192 -224 192
WIRE -224 208 -224 192
WIRE 160 208 160 160
WIRE -512 304 -512 224
WIRE -368 304 -368 256
WIRE -368 304 -512 304
WIRE -224 304 -224 288
WIRE -224 304 -368 304
WIRE 0 304 0 240
WIRE 0 304 -224 304
WIRE 160 304 160 272
WIRE 160 304 0 304
WIRE 0 320 0 304
FLAG 0 320 0
SYMBOL voltage -512 128 R0
WINDOW 123 0 0 Left 0
WINDOW 39 0 0 Left 0
SYMATTR InstName V1
SYMATTR Value 5
SYMBOL voltage -224 192 R0
WINDOW 123 0 0 Left 0
WINDOW 39 0 0 Left 0
SYMATTR InstName V2
SYMATTR Value 5
SYMBOL cap 144 208 R0
SYMATTR InstName C1
SYMATTR Value 1f
SYMBOL nand 0 160 R0
SYMATTR InstName X1
SYMATTR SpiceModel nand
SYMBOL voltage -368 160 R0
WINDOW 123 0 0 Left 0
WINDOW 39 0 0 Left 0
SYMATTR InstName V3
SYMATTR Value 5
TEXT -544 344 Left 2 !.tran 1m
